OpenDSS_files/test_3_node_eqv.dss
Clear

New object=circuit.test3sec
~ basekv=12.47 Bus1=1 pu=1.000 R1=0 X1=0.0001 R0=0 X0=0.0001

New linecode.3 nphases=3 BaseFreq=60 units=kft
~ rmatrix = [0.086666667 | 0.029545455 0.088371212 | 0.02907197 0.029924242 0.087405303]
~ xmatrix = [0.204166667 | 0.095018939 0.198522727 | 0.072897727 0.080227273 0.201723485]

New linecode.2 nphases=2 BaseFreq=60 units=kft
~ rmatrix = [0.086666667 | 0.02907197  0.087405303]
~ xmatrix = [0.204166667 | 0.072897727  0.201723485]


New linecode.1 nphases=1 BaseFreq=60 units=kft
~ rmatrix = [0.251742424]
~ xmatrix = [0.255208333]

New linecode.10 nphases=1 BaseFreq=60 units=ft
~ rmatrix = [0.13824]
~ xmatrix = [0.196]

New linecode.11 nphases=1 BaseFreq=60 units=ft
~ rmatrix = [0.2962]
~ xmatrix = [0.4197]



New Line.L1	Phases=3 Bus1=150.1.2.3  Bus2=1.1.2.3    LineCode=3    Length=0.3    units=kft
New Line.L2	Phases=3 Bus1=1.1.3    Bus2=2.1.3    LineCode=2    Length=0.3    units=kft
New Line.L3 	Phases=1 Bus1=2.3        Bus2=3.3        LineCode=1   Length=0.175  units=kft

New Line.L4 	Phases=1 Bus1=3.3        Bus2=s3c_1.1       LineCode=11   Length=60	units=ft
New Line.L5 	Phases=1 Bus1=3.3        Bus2=s3c_1.2       LineCode=11   Length=60	units=ft



!redirect Triplex_Lines.dss
New Linecode.2P_Code0 units=km nphases=2 
~ Rmatrix=(0.018463873761402304 0.010245257418119462 | 0.010245257418119462 0.018463873761402304 ) 
~ Xmatrix=(-0.19558725800583987 -0.11519922081668142 | -0.11519922081668142 -0.19558725800583987 ) 

New Line.s3c_12 Units=km Length=0.024 bus1=s3c_1.1.2 bus2=s3c_2.1.2 phases=2 Linecode=2P_Code0
!New Line.s3c_13 Units=km Length=0.024 bus1=s3c_1.1.2 bus2=s3c_3.1.2 phases=2 Linecode=2P_Code0
!New Line.s3c_14 Units=km Length=0.024 bus1=s3c_1.1.2 bus2=s3c_4.1.2 phases=2 Linecode=2P_Code0


!redirect SecondaryLoads.dss
New Load.S3c_2 Bus1=s3c_2.1.2 Phases=2 Conn=Wye   Model=1 kV=12.47  kW=13.75 kvar=8.87
!New Load.S3c_3 Bus1=s3c_3.1.2 Phases=2 Conn=Wye   Model=1 kV=12.47   kW=5.040925174532886 kvar=2.520462587266443

!.................................................................................

!.................................................................................



Set VoltageBases = [12.47 0.48 0.208]    ! ARRAY OF VOLTAGES IN KV
CalcVoltageBases  ! PERFORMS ZERO LOAD POWER FLOW TO ESTIMATE VOLTAGE BASES

Set MaxControlIter=30

New EnergyMeter.Feeder Line.L1 1
set loadmult= 1


set controlmode=off

